test/results/case5/base/res_branch_1.csv
branch,from_bus,to_bus,X,B,G,Bfr,Bto,p_from,p_to,q_from,q_to,p_loss,q_loss,s_from,s_to,rate_a,ang_deg,angmin,angmax
4,2,3,0.0108,-91.67583425009167,9.167583425009166,0.00926,0.00926,-0.49206356928421935,0.49449340654394836,-1.5606849578769195,1.5628964117420485,0.0024298372597290063,0.0022114538651289983,1.6364180682087348,1.6392586504123166,4.26,-0.17491876153183145,-29.999999999999996,29.999999999999996
2,1,4,0.0304,-32.56904637832204,3.2569046378322044,0.00329,0.00329,1.8786868814534339,-1.8691532524839924,0.3313191091319439,-0.24352892116609912,0.009533628969441432,0.08779018796584478,1.9076783666596457,1.884950985229009,4.26,2.8037822359149973,-29.999999999999996,29.999999999999996
3,1,5,0.0064,-154.7029702970297,15.470297029702971,0.01563,0.01563,-2.302463581064572,2.3069525273011986,1.66818069670563,-1.6593054414995558,0.004488946236626656,0.00887525520607424,2.8432666739139987,2.841711546130505,4.26,-0.7865654623101169,-29.999999999999996,29.999999999999996
5,3,4,0.0297,-33.33666700003334,3.3336667000033335,0.00337,0.00337,-0.24950845889918044,0.2541684130425933,1.3510036270194978,-1.312297933631287,0.004659954143412859,0.03870569338821084,1.373850527270737,1.3366852467209833,4.26,-0.5597254998390931,-29.999999999999996,29.999999999999996
6,4,5,0.0297,-33.33666700003334,3.3336667000033335,0.00337,0.00337,-2.3850151704715516,2.3999834677606056,0.13310386591370607,0.008911345230459451,0.014968297289053911,0.14201521114416552,2.3887264394443783,2.4000000119995915,2.4,-3.590347698225114,-29.999999999999996,29.999999999999996
1,1,2,0.0281,-35.234840209999646,3.5234840209999647,0.00356,0.00356,2.52377672658965,-2.5079364307157808,-0.4244997832279491,0.5745849578769195,0.01584029587386926,0.15008517464897042,2.559228210151675,2.572915275388957,4.0,3.538426497285922,-29.999999999999996,29.999999999999996
